/*--------------------------------*- C++ -*----------------------------------*\
| =========                 |                                                 |
| \\      /  F ield         | OpenFOAM: The Open Source CFD Toolbox           |
|  \\    /   O peration     | Version:  v2412                                 |
|   \\  /    A nd           | Website:  www.openfoam.com                      |
|    \\/     M anipulation  |                                                 |
\*---------------------------------------------------------------------------*/
FoamFile
{
    version     2.0;
    format      ascii;
    class       dictionary;
    object      setFieldsDict;
}
// * * * * * * * * * * * * * * * * * * * * * * * * * * * * * * * * * * * * * //



regions
(
    // boxToCell
    // {
    //     box (0.0 0 -1) (3.00 0.2 1);
    //     fieldValues
    //     (
    //         volScalarFieldValue rho 2
    //     );
    // }

    cylinderToCell
    {
        p1 (0.25 0.0 -1);
        p2 (0.25 0.0 1);
        radius 0.25;
        fieldValues
        (
            volScalarFieldValue rho 200.0
        );

    }
);

// ************************************************************************* //
