/*--------------------------------*- C++ -*----------------------------------*\
| =========                 |                                                 |
| \\      /  F ield         | OpenFOAM: The Open Source CFD Toolbox           |
|  \\    /   O peration     | Version:  v2412                                 |
|   \\  /    A nd           | Website:  www.openfoam.com                      |
|    \\/     M anipulation  |                                                 |
\*---------------------------------------------------------------------------*/
FoamFile
{
    version     2.0;
    format      ascii;
    class       dictionary;
    object      fvSolution;
}
// * * * * * * * * * * * * * * * * * * * * * * * * * * * * * * * * * * * * * //

solvers
{
    "(p)"
    {
        solver          PCG;
        preconditioner  DIC;
        tolerance       1e-9;
        relTol          0.01;
        minIter         1;
    }

    "(p)Final"
    {
        $p;
        relTol          0;
    }

    "(rho)Final"
    {
        solver          PBiCGStab;
        preconditioner  DILU;
        tolerance       1e-9;
        relTol          0.01;
        minIter         1;
    }

    "(U|e|h)"
    {
        solver          PBiCGStab;
        preconditioner  DILU;
        tolerance       1e-9;
        relTol          0.01;
        minIter         1;
    }

    "(U|e|h)Final"
    {
        $U;
        relTol          0;
    }

    "(rho)"
    {
        solver          PBiCGStab;
        preconditioner  DILU;
        tolerance       1e-9;
        relTol          0.01;
        minIter         1;
    }

}

PIMPLE
{
    momentumPredictor          yes;
    nOuterCorrectors           1;
    nCorrectors                2;
    nNonOrthogonalCorrectors   2;
}


// ************************************************************************* //
