/*--------------------------------*- C++ -*----------------------------------*\
| =========                 |                                                 |
| \\      /  F ield         | OpenFOAM: The Open Source CFD Toolbox           |
|  \\    /   O peration     | Version:  2412                                  |
|   \\  /    A nd           | Website:  www.openfoam.com                      |
|    \\/     M anipulation  |                                                 |
\*---------------------------------------------------------------------------*/
FoamFile
{
    version     2.0;
    format      binary;
    arch        "LSB;label=32;scalar=64";
    class       polyBoundaryMesh;
    location    "constant/polyMesh";
    object      boundary;
}
// * * * * * * * * * * * * * * * * * * * * * * * * * * * * * * * * * * * * * //

5
(
    top
    {
        type            wall;
        inGroups        1(wall);
        nFaces          70;
        startFace       29120;
    }
    bottom
    {
        type            wall;
        inGroups        1(wall);
        nFaces          70;
        startFace       29190;
    }
    left
    {
        type            patch;
        nFaces          210;
        startFace       29260;
    }
    right
    {
        type            patch;
        nFaces          210;
        startFace       29470;
    }
    frontAndBack
    {
        type            empty;
        inGroups        1(empty);
        nFaces          29400;
        startFace       29680;
    }
)

// ************************************************************************* //
